-- _outcom ;
-- _trace '--------';

-- calling gdepos (6) each step after some time
-- calling tt4strad and Lbol in one run

/* PACKAGE STELLA: IMPLICIT HYDRODYNAMICS, KINETICS & VARIOUS TYPES
    OF TRANSFER.
    Version R4 continuum PHOTON TRANSFER without REZONING
    but with dropping of outer zones for tau<@tau_floor
    and limiting the flux for zones with jumps in tau > taujmp
    12 Mar 1989  at ITEP, Moscow
    27 May 1990  at  MPA, Garching
    18 Dec 1991  at  MPA, Garching  -- scattering
    24 Apr 2001  at UCO/Lick, Santa Cruz -- call beams -- now in eddirel.trf
    subroutine references:
     **** BEGRAD ****
     BEGIN - initialization of run.
     **** LBALRAD ****
     LOSSEN - losses and gains of energy
     PRIBAL - print model & balances
     **** STIFFBGH ****
     VTSTIF - integrates one time step
     **** DFRAD ****
     DIFMAT for HydroDynamics & Transfer EQUATIONS--
     **** HAPBLA ****
     HAPPA -- opacity in frequency bands
     **** SAHAZ ****
     URSOS
     **** OPAZR ****
     OPACIT -- Rosseland mean (Zeldovich-Rayzer approximation)
     **** NTH ****
     Subroutine NTH: finds in NTHICK(L) the zone numbers of
           optically thick zones for all NFRUS frequency groups *>;
     **** commons are included by trefor _include ****
     fundrad include a
     SNRAD   INCLUDE A
     ABO     INCLUDE A
     BLACK   INCLUDE A;
     BLACK, BLACKD -- black-body radiation occ. number & its derivative
                                                    */
--  _TRACE "WRITE(@term,*)' Ncnd,Ncnew=',Ncnd,Ncnew,"
--  _TRACE "WRITE(@term,*)' jstart=',jstart,"
--  _TRACE --"if (nstep==319 .or. nstep==320 .or. nstep>=406)
--  _TRACE " if (nstep==319 .or. nstep==320 .or. nstep>=406)
--            WRITE(@term,'(a,3i5\\a,1p,4f12.5)')
--               ' Nstep,Ncnd,Nfrus=',Nstep,Ncnd,Nfrus,
--               ' Ty(ncnd+1...ncnd+4): ',Ty(ncnd+1),Ty(ncnd+2),
--               Ty(ncnd+3),Ty(ncnd+4),"
--  _TRACE " if (nstep==319 .or. nstep==320 .or. nstep>=406)
  --          write(*,*)' Ty(ncnd+1...ncnd+4): ',Ty(ncnd+1),Ty(ncnd+2),
    --           Ty(ncnd+3),Ty(ncnd+4),"
--  _TRACE " if (nstep>150)
  --          write(*,'(a,1p,3g20.12)')' Ry(Mzon-2),Ry(Mzon-1),Ry(Mzon)= ', Ry(Mzon-2),Ry(Mzon-1),Ry(Mzon),"
--  _TRACE " if (nstep==319 .or. nstep==320 .or. nstep>=406)
  --          write(*,*)' Y(2*Nzon+ncnd+1...+4,1): ',Y(2*Nzon+ncnd+1,1),
    --          Y(2*Nzon+ncnd+2,1),Y(2*Nzon+ncnd+3,1),Y(2*Nzon+ncnd+4,1) ,"
--  _TRACE " if (nstep==319 .or. nstep==320 .or. nstep>=406)
  --          write(*,*)' Happal(last 5 Nfrus): ',
    --           Happal(Nfrus-4),Happal(Nfrus-3),
      --         Happal(Nfrus-2),Happal(Nfrus-1),Happal(Nfrus) ,"
--  _TRACE "WRITE(@term,*)' Y11=',Y(1,1),"
--  _TRACE "WRITE(@term,'(a,1p,e12.4)')' chem=',chem,"
--  _TRACE "@wterm' Strad Ltau,Nthick=',Ltau,Nthick(Ltau),"
--  _TRACE "@wterm' Strad Ltau,=',Ltau,"

_Define
     @Lfn ' ' -- for Unix
     -- @Lfn ',80' -- length of the Filein, Fileout


_DEFINE
 @INTERRUPTION   INTRP
 @FREQ_TOL       1.6D0
 @FJ2    Y(NVARS*NZON+(NZON-Ncnd)*(L-1)-Ncnd+KM+1,1)    -- FJ(Km+1,L)
 @FJ1    Y(NVARS*NZON+(NZON-Ncnd)*(L-1)-Ncnd+KM,1)      -- FJ(Km,L)
 @FH1    Y(NVARS*NZON+(NZON-Ncnd)*(L-1)-Ncnd+KM+KRAD,1)
 @NCOND_MAX      NZON-3
 @TIME           CT001   --    CURRENT TIME
 @DATE           D0001   --    CURRENT DATE
 @BEG_TIME       B0001
 @SAVE_MODEL     SAVEM
 @TAU_FLOOR      3.D-4
 @Nrezone        20      -- allow to throw away  @Nrezone outer zones
 @N_EDD          50  --   N of steps for updating Eddington factors
 @Nrlx           25.d0 -- N of steps for Edd relaxation (real)
 @LEFT           6.D0     --   COEFF. FOR LEFT BOUNDARY AT R=RCORE
-- @LEFT==6*HEDD AT CORE WHERE H==.5*INTEGRAL(F*MU*DMU)==FH*HEDD
-- @DateTime       "If(Lsystem) then;
--                     CALL DATTIM(@DATE,@TIME);
--                  else;
--                     call DateTime(@Date,@Time);
--                  endif;"
 @DateTime ";" ;


-- DEBUG SUBCHK,UNIT(6);ENDDEBUG;
PROGRAM STELLA;    -- CALCULATE STELLAR MODEL
 IMPLICIT REAL*8(A-H,O-Z);
 REAL    LTIM,MTIM;              -- TIMER
 REAL    @BEG_TIME,TIMEND;       -- TIMER  IBM, F90 & Ndp
 --REAL*8      @BEG_TIME,TIMEND; -- TIMER  RISC_IBM
 --CHARACTER*8 @DATE, @TIME*8;   -- TIMER  IBM
 CHARACTER*10 @DATE;
 CHARACTER*8  @TIME;            -- TIMER  F90
    _INCLUDE snrad;
    _INCLUDE opacity;
    _INCLUDE abo;
--  real*8 hptrbab(Nfreq,@Ntab,@Ntab,Mzon/@skip),
--          hptrbsc(Nfreq,@Ntab,@Ntab,Mzon/@skip);
--  Parameter(Taukli=0.1d0); -- tau for flux limiter
--  Parameter(Taujmp=0.5d0); -- tau jump for flux limiter
--  Common/Lim/Klim(Mzon);
    Common/Volanm/Ryzer,Kmcor;  -- emulate Ni for analyt.model
    PARAMETER(NzMIN=Mzon*5/6);    -- minimum Nzon - number of mass zones
    PARAMETER(NCNMIN=5);    -- minimum Ncnd - number of conduction zones
    Parameter(TREZON=3.D18); -- allow rezoning after Trezon (sec)
--    Parameter(TREZON=3.D1); -- allow rezoning after Trezon (sec)
    Parameter(tsmoth=4.D6); -- smoothing/forced Ncnd=0 (sec, proper tim)
    Parameter(tret=1.d0/3.d0);
    Logical HOLDFR;         -- Decreasing NFRUS is forbidden
    Logical LEXIST1,LEXIST2;
    Character*80 Dfile,Rfile,bmfile,Nidist,swdet,balafile;
    character*160 wordm(10),runname,filestr;
    integer lwordm(10),lrun,nwordm,errnum;
    Character*8 STRBAT;
    Dimension Ysave(NYdim);
    save Ysave;
--    Dimension dumFreq(Nfreq+1),dumFreqmn(Nfreq),dumwavel(Nfreq);
    -- now in opacity.inc
    Common/FRAD/ FRADJ(Mzon,Nfreq),FRADH(Mzon,Nfreq);
    Common/out/ tretard,tout,Yout(NYdim); -- for interpolation
--    Dimension Wacc(3); -- for Wacc(IFL)<1. accuracy is higher
--    Data Wacc /1.d-3, 1.d-2, 1./;
--    DATA freqfind/.false./;
<*C* CONVECTIVE VARIABLES *>;
   _Include black;
--    BLACK, BLACKD -- black-body radiation occ. number & its derivative
--  Theta(Z)=0.5D0*(SIGN(1.D0,Z)+1.D0);
    <*openfiles: unit=1  strad.1
                 unit=8  dat file
                 unit=28 Nidist  etc. *>;
    call Vtime(@BEG_TIME);
    If(Lsystem) then;
   --   CALL SPM001(12);    -- underflow correction
--      LTIM=LTIME(0);                             -- IBM
    else;
      Call Tremain(LTIM,@BEG_TIME); -- Run time remaining
    endif;
    <*I: INITIALIZATION: call BEGIN  *>;
    If ( Givdtl ) Then;  -- for test runs
      Open(unit=18,file='details.res');
    Endif;
    <*A: COMPUTE NEW MODEL CALLING VTSTIF, ANALYSE THE STEP,
         CHECK BALANCES & PRINT CALLING PRIBAL, WRITE WHERE NEEDED.
         For successful runs KFLAG==0 in the end *>;
    <*closecrvfiles: check if crv flx are closed by savemodel - stradio *>;
    <*closefiles: final closing all files *>;
    if (KFLAG==0)then;
      call tt4strad(runname);
      call Lbol(runname);
    endif;
    <*packing: using command SYSTEM() send
                .tt, .ph, .swd, .lbol to ~/prg/stella/res/
                gzip .res, rm .bm, .avg etc *>;
    STOP ' Normal stop of stella';
END;

/*
double precision function BLACK(Lbl,Tpbl);
implicit double precision (A-H,O-Z);
  double precision x;
  _include zone;
      COMMON/BAND/FREQ(NFREQ+1),
  /* frequency bins boundaries
     frequency in units of h/(k*Tpunit) */
     FREQMN(NFREQ),
  /* frequency mean (middle of bin) */
     WEIGHT(NFREQ),
     HAPPAL(NFREQ),
     HAPABSRON(NFREQ),
     HAPABS(NFREQ),
     DLOGNU(NFREQ); --(log step in frequency)**-1
     x=FREQMN(Lbl)/Tpbl;
     --write(*,*) x;
     BLACK=exp(-x)/(1.d0-(exp(-x)));
 return;
end;

double precision function BLACKD(Lbl,Tpbl);
implicit double precision (A-H,O-Z);
  double precision x;
  _include zone;
      COMMON/BAND/FREQ(NFREQ+1),
  /* frequency bins boundaries
     frequency in units of h/(k*Tpunit) */
     FREQMN(NFREQ),
  /* frequency mean (middle of bin) */
     WEIGHT(NFREQ),
     HAPPAL(NFREQ),
     HAPABSRON(NFREQ),
     HAPABS(NFREQ),
     DLOGNU(NFREQ); --(log step in frequency)**-1
     x=FREQMN(Lbl)/Tpbl;
     BLACKD=(x)*(exp(-(x)))/(1.d0-(exp(-(x))))**2;
 return;
end;
*/

%_openfiles:
    Open(unit=1,file='strad.1',status='old');
    READ(1,'(A)'); -- header
    read(1,'(A)') filestr;
    close(1);
    <*filenames: filestr contains filenames for input and output *>;
    @wterm Dfile;
    @wterm Rfile;
    @wterm Model;
    @wterm Nidist;
    @wterm Opafile;
    @wterm Sumprf;
    @wterm Sumcur;

     INQUIRE(FILE=Sumprf,EXIST=LEXIST1);
     INQUIRE(FILE=sumcur,EXIST=LEXIST2);
     IF(LEXIST1 & LEXIST2)THEN;
        BEGRUN=.FALSE.;
     ELSEIF(^LEXIST1 & ^LEXIST2) THEN;
        BEGRUN=.TRUE.;
     ELSE;
        Write(@Term,'(A)') ' File Sumprf or SUMCUR is missing';
        stop 28;
     ENDIF;
--     write(@term,*) Lexist1,Lexist2,BegRun;

    Open(unit=8,file=Dfile,status='old');  -- Data file for start
    Open(unit=@WRES,file=Rfile,status='new');  -- Results
    Open(unit=60,file=bmfile,status='new');  -- file for beams
--    write(@term,*) ' opened unit=60 file=',bmfile;
--    read(*,*);
    Open(unit=81,file=swdet,status='new');  -- SW details
    Open(unit=28,file=Nidist,form='unformatted',status='unknown');
--  Open(unit=7,file='delzon.res');
    Open(unit=76,file=balafile,status='unknown');-- file for energy balance
%_openfiles_filenames:

   call words(filestr, wordm,lwordm, nwordm);
   --@wterm filestr;
  -- @wterm nwordm;
   if (nwordm < 5 ) then; --
      @wterm ' check your start file, something is missing !';
      stop 12;
   endif;
   lrun=lwordm(1);
   runname(1:)=wordm(1)(1:lrun);
   rfile(1:lwordm(2))=wordm(2)(1:lwordm(2));
   Narg=Iargc();
  _Case Narg+1 _Of
      write(*,*) ' Extra arguments.'; Stop 16;
   _0 --write(*,*) ' using runname from strad.1 file';
   _1 --write(*,*) ' using runname from argument';
      call GetArg(1,wordm(1) @Lfn);
      runname=wordm(1)(1:len_trim(wordm(1)));
      rfile=runname(1:len_trim(runname))//'.res';
      lrun=len_trim(runname);
      lwordm(3)=8; -- for c******m models
      wordm(3)=runname(1:lwordm(3))//'_2000h';
      lwordm(3)=lwordm(3)+6; -- for '_2000h' models
      lwordm(4)=lwordm(3);
      wordm(4)=wordm(3);
  _Esac;
   dfile(1:)=runname(1:lrun)//'.dat';
   bmfile(1:)=runname(1:lrun)//'.bm';
   model(1:)='../../eve/run/'//wordm(3)(1:lwordm(3))//'.mod';
   Nidist(1:)='../../eve/run/'//wordm(4)(1:lwordm(4))//'.xni';
   Opafile(1:)='../../vladsf/'//wordm(5)(1:lwordm(5)); -- standard path
   Sumprf(1:)=runname(1:lrun)//'.prf';
   SumCur(1:)=runname(1:lrun)//'.crv'; -- opened in stradio unit=11
   Depfile(1:)=runname(1:lrun)//'.dep';
   Flxfile(1:)=runname(1:lrun)//'.flx'; -- opened in stradio unit=23
   swdet(1:)=runname(1:lrun)//'.swd';
   balafile(1:)=runname(1:lrun)//'.balance'; --file for energy balance
%_closefiles:
    Close(unit=2);
    Close(unit=8);
    Close(unit=@WRES);
    Close(unit=9);
    Close(unit=10);
    Close(unit=11); -- crv
    Close(unit=22); -- deposition
    close(unit=23); -- flx
    close(unit=60); -- bm
    close(unit=81); -- swdet
    close(unit=76); -- balance
    If ( Givdtl ) Then;
      Close(unit=18);
    Endif;
--    _do nf=1,@ns;
  --    nu=30+nf;
  --    close(nu); -- closed immediately
  --  _od;
--  Close(unit=7); -- delzone.res

%_packing:

/*

  Isys = 0;
  Isys = SYSTEM('gzip '//runname(1:lrun)//'.res');
--  write(*,*) ' gzip res is done Isys=',Isys, '  Csys=',Csys;
  If (Isys == -1) then;
     errnum = ierrno( );
     write(*,'(a,i2)') ' Error gzip res= ', errnum;
  endif;

  Isys = SYSTEM('echo HOMEStella: $HOMEStella');
--  write(*,*) ' echo HOMEStella Isys=',Isys, '  Csys=',Csys;
  If (Isys == -1) then;
     errnum = ierrno( );
     write(*,'(a,i2)') ' Error echo HOMEStella= ', errnum;
  endif;

  Isys = SYSTEM('mv  '//runname(1:lrun)//'.{ph,tt,swd,lbol,res.gz}'
         //' ../../res/');
*/
  Isys = SYSTEM('mv  '//runname(1:lrun)//'.ph'
         //' ../../res/');
  Isys = SYSTEM('mv  '//runname(1:lrun)//'.tt'
         //' ../../res/');
  Isys = SYSTEM('mv  '//runname(1:lrun)//'.swd'
         //' ../../res/');
  Isys = SYSTEM('mv  '//runname(1:lrun)//'.lbol'
         //' ../../res/');
--  Isys = SYSTEM('mv  '//runname(1:lrun)//'.res.gz'
  Isys = SYSTEM('mv  '//runname(1:lrun)//'.res' -- if gzip res is not used
         //' ../../res/');
--  write(*,*) ' mv to res is done Isys=',Isys, '  Csys=',Csys;
  If (Isys == -1) then;
     errnum = ierrno( );
     write(*,'(a,i2)') ' Error mv to res= ', errnum;
  endif;

  Isys = SYSTEM('rm -f '//runname(1:lrun)//'.bm');
  Isys = SYSTEM('rm -f '//runname(1:lrun)//'.avg');
--  write(*,*) ' rm bm,avg is done Isys=',Isys, '  Csys=',Csys;
  If (Isys == -1) then;
     errnum = ierrno( );
     write(*,'(a,i2)') ' Error  rm bm,avg = ', errnum;
  endif;


%C:O
    EQUIVALENCE  (Y((NVARS-1)*Mzon+1,1),YAINV(1));
    EQUIVALENCE  (Y((NVARS-2)*Mzon+1,1),UC(1));
    COMMON/CONV/ELMX(Mzon),FLCON(Mzon);

%I:
    EIT=1.D-5;<*ACCURACY OF ITERATIONS*>   DST=1.D-4;
    CALL BEGIN;
    close(8); -- this is needed to detach dat file for use by ttfit
    Close(unit=28); -- to detach xni

    FLnois=Floor(NVARS+1); -- for radiation
    If(Lsystem) CALL BASTAT('BEGIN RD');
    --PRINT *,' JSTART=',JSTART;
    NEEDBR=.TRUE.; -- F01BRF/M28Y12 NEEDED
    NSTEP0=NSTEP;
    do K=1,Nzon; -- Ry,Uy,Ty and rho must be defined before each call of Lossen or Pribal
      -- either via Y or Yout
      Ry(K)=Y(K,1);
      Uy(K)=Y(Nzon+K,1); -- NR
 --      Uy(K)=Y(Nzon+K,1)/sqrt(1.d0+(Y(Nzon+K,1)/clight)**2);
      Ty(K)=Y(2*Nzon+K,1);
    enddo;
    Rho(1)=3.D0*DM(1)/(Ry(1)**3-Rce**3);
    do I=2,Nzon;
      Rho(I)=3.D0*DM(I)/(Ry(I)**3-Ry(I-1)**3);
    enddo;
    Call LOSSEN;
    <*T: CHECK Ncnd & KRAD *>;
    RTphi(0)=0.; RTphi(Nzon+1)=0.;
    Uscale=1.d9*Utime/UR;
    <*RT: R-T coeff. in RTphi *>;
    <*Tpcomp: find in Tpcomp the highest Tp(i) for i>Ncnd
              for use in approximate treatment of Compton *>
    Ycomp=(Boltzk*UTp*Tpcomp)/(Amelec*Cs**2); -- Comptonization par.
--    Write(@term,*)' Tpcomp   Ycomp:  ',Tpcomp,Ycomp;
    <*N: CHECK NFRUS *>;
    _do L=1,NFREQ;
         _DO IK=1,NZON;  -- for EDTM==T for all later steps
           Eddn(IK,L)=tret;
           EddO(IK,L)=Eddn(IK,L);
           EDDJ(IK,L)=Eddn(IK,L);
         _OD;
         HEdN(L)=0.5d0;
         HEdO(L)=HEdN(L);
         HEDD(L)=HEDN(L);
--         write(*,'(a,i5,1p,e12.4)')' 0 step L Hedd:', L,Hedd(L);
      _od;

%IT:

     tday=t*UTIME/8.64d+04; -- CRAP=1.
     if(NSTEP==0)t_eve=tday; -- needed by happa (hapdirect)


   /*
    Ncnew=NTHICK(1); LTAU=1;
   _DO L=2, NFRUS;
      IF( NCNEW > NTHICK(L)) THEN;
         NCNEW=NTHICK(L);
         LTAU=L;  -- find the most transparent energy group
      ENDIF;
   _OD;
   */
--   @wterm' Ltau=',Ltau;
   I=NZON; TAU(I)=0.D0;
--   _WHILE  I>1 & (TAU(I)<=FitTau*TauTol  ! I>=Ncnd ) _DO
   _WHILE  I>1  _DO
        TP=Ty(I); Pl=3.D0*DM(I)/(Ry(I)**3-Ry(I-1)**3);
        _Do ii=1, Natom [ Yat(ii)=YABUN(ii,I) ];
        RADP=.FALSE.;
        CALL URSOS;
        Rho(I)=Pl;
        Press(I)=P*UPI;
        kmhap=I; CALL HAPPA;
--        @wterm' after CALL HAPPA kmhap=',kmhap;
        Hapmin=Happal(1);
        Ltau=1;
        _Do L=2,Nfrus;
--        _Do L=2,LubvU;
           If(Happal(L)<Hapmin)then;
             Hapmin=Happal(L);
             Ltau=L;
           endif;
        _od;
 --@wterm' Ltau=',Ltau;
        TAUste=(Ry(I)-Ry(I-1))*HAPPAL(LTAU)*PL;
        If(Scat)then;
           TAUabs=(Ry(I)-Ry(I-1))*HAPabs(LTAU)*PL;
           TAUsca=Tauste-Tauabs;
           ---If(Nstep>7250)then;
--           @wterm' Ltau=',Ltau;
--           Write(@term,'(A,1P,3E11.3)')' tau tauabs tausca',tauste,tauabs,tausca;
           ---endif;
           If(Tausca>1.d0)then;
              Tauste=sqrt(Tauabs*Tausca);
           else;
              Tauste=Tauabs;
           endif;
        endif;
        TAU(I-1)=TAU(I)+Tauste;
        I=I-1
   _OD; -- I=0 --old I<Ncnd & TAU(I)>FitTau*TauTol
   Ncnew=Nthick(Ltau);
--   _Do K=Ncnew-1,I,-1; -- old wrong for small diff. at ncnew & I
   _Do K=Ncnew-1,1,-1;
      tau(K)=tau(K)-tau(Ncnew); -- to try to catch transparent zones < Ncnew
   _od;
-- Ncnew=NZON;
  _WHILE TAU(max(Ncnew,1)) <= FitTau  & Ncnew>=NCNMIN _DO
   --  & TAU(Ncnew-1) <= FitTau*TauTol      _DO
       Ncnew=Ncnew-1
  _OD; -- TAU(Ncnew) > FitTau or Ncnew<NCNMIN or
       -- TAU(Ncnew-1) > FitTau*TauTol
--  WRITE(@term,*)' Ncnew=',Ncnew,'  Ncnd=',Ncnd,
 --    ' TAU(Ncnd or 1)=',TAU(max(Ncnd,1));

  /* WRITE(@term,'(2I6,I3,4(A,1P,G10.3))')
          NSTEP,MAXER,NQUSED,' H=',H,' Hused=',HUSED,
          '  Tp=',Ty(1),'  Rho=',Rho(1);
  WRITE(@term,'(1X,A,1P,G11.3,A,I3,A,G11.2)')
  ' Time(days)=',tday,'  Ncnd=',Ncnd,'    TAU(Ncnd or 1)=',TAU(max(Ncnd,1));
  */
--  WRITE(@term,'(2I6,I3,3(A,1P,G10.3),A,I3,A,G11.2)')
--          NSTEP,MAXER,NQUSED,' Hu=',HUSED,' Ro=',Rho(1),
--          ' td=',tday,' Ncnd=',Ncnd,' Tau=',TAU(max(Ncnd,1));
  IF(Ncnew<NCNMIN) Ncnew=0;
--If(Ncnew<NCNMIN .or. t*Utime>tsmoth) Ncnew=0; -- force Ncnd=0
  Ncnew=MIN(Ncnew,@NCOND_MAX);
  HOLDFR=.TRUE.;  -- forbids the decrease of NFRUS  if there is no
                  -- change of Ncnd or if Ncnd grows (i.e. hot wave
                  -- moves out)
  _If (TAU(max(Ncnd,1))>TauTol*FitTau  .or. -- Ncnew==0 .or. -- for forced Ncnd
       TAU(max(Ncnd,1))*TauTol<FitTau) & Ncnew^=Ncnd & (CHNCND .or. Nstep==0)_THEN
    -- TAU(Ncnd)*TauTol<FitTau) & Ncnew< Ncnd & CHNCND _THEN
      _Select
       _ Ncnew<Ncnd
                [ <*O: ADD FJ,FH FOR ZONES Ncnew+1:Ncnd *>;
                       HOLDFR=.FALSE. ] -- for Ncnd moving inward
                       -- the decrease of Nfrus is allowed
       _ Ncnew>Ncnd & Ncnew<=@NCOND_MAX
                [ <*U: DELETE FJ,FH FOR ZONES Ncnd+1:Ncnew *>]
       _ Ncnew>@NCOND_MAX [ KFLAG=-3 ]  -- not active now
      _end;
      If(KFLAG==0)Then;
          <*LIM*    limiting FH *>;
          <*D* test printing*>;
           -- test as coll:
          JSTART=0;
--          Hmax=max(Hmax,t*1.d-3);
--          @wterm ' 2nd Jstart=',Jstart;
          NEEDBR=.TRUE.; -- F01BRF/M28Y12 NEEDED
--          Evalja=.TRUE.; -- not needed when Jstart=0;
          <*H* CHECK FH & PUT SMALLER THAN FJ WITH JSTART=0 *>;
    --    XJPH=RPH; -- for limiting DFJ in Dfrad %Derata
      endif;
  _fi;
  -- If(Ncnd>0) Nclast=Ncnd;


%A:
    @DateTime;
    WRITE(@Wres,'(1X,''   ====> STEP:'',I6,2X,A,2X,'' ON  '',A)')
               NSTEP,@TIME,@DATE;
--  IF(Ncnd==0)THEN;
--      IF(t*UTIME > tsmoth) CALL SMOOTH;
    <*eddtau: eddington factors and optical depth to start with
              call pribal to print the first model of the run*>;

--    Klim=min(I+1,Nzon);
    <*HLIM*    *>;
    _do kko=1,komax;
       TO(kko)=TO(kko)*8.64d+04; -- if TO in days
    _od;
    KFLAG=0;
--    KO=1; -- wrong for continuation runs
    KNTO=1;
--    TOO=TO(1); -- here TO in secs

    nmom=1;
    TOO=TO(1);
/*
   _while t*Utime > TO(nmom) _do -- this loop must be corrected for R/c
           -- if below we output interpolation for t_observed
           -- maybe better return to interpolation outputs in comoving time
--       @wterm' t*Utime > TO(n)',t*Utime,TO(nmom),nmom;
       -- pause;
       nmom=nmom+1;
       TOO=TO(nmom);
   _od;
*/ --
   KO=nmom;

 _WHILE KFLAG==0 .and. NSTEP<NSTMAX  _DO
    <*ymax: save Y(.) in Ysave and define for all y(.) from 1 to N *>;
     tday=t*UTIME/8.64d+04; -- CRAP=1.
     if(NSTEP==0)t_eve=tday;
     _If abs(KNadap)>=4  _then
      <*haptab: read two relevant tables of hptab{ab/sc}, depending
                on the interval in which log(tday) falls in stmlog(.)
                array and save in hpban{ab/sc}1 & hpban{ab/sc}2
                respectively *>;
     _fi
     CALL VTSTIF;
    <*CheckDr: while there is K such as: Ry(K)<=Ry(K-1), i.e. Badste,
               retract t, Y to t-Hused,   reduce H, and call VTSTIF again *>;

     NSTEP=NSTEP+1;
     NZM=NZMOD;

     if(tday > 2.d0)  CALL GDEPOS; -- each step after 2 days
--     CALL GDEPOS; -- each step
     <*L: analyse the step: find new regime in NREG(1:NZON):
          NREG(I)==1 Carbon burning
                   2 Silicon burning
                   3 no burning
          find integral energy losses,
          print & write model when needed*>;
  --WRITE(@term,*)' NSTEP=', NSTEP;
    IF (KFLAG==0) THEN ;
  --  WRITE(STRBAT,'(''step'',I5)') NSTEP;
  --  CALL BASTAT(STRBAT);
      If(t*UTIME>=8.64D4*tcurB) NSTMAX=NSTEP;
      IF(MOD(NSTEP,10)==0)THEN;
         ierr = 0;
         open(unit=77, file='stop', status='old', action='read', iostat=ierr);
         if(ierr==0)then;
            NSTMAX=NSTEP;
            write(*,*) 'found file named stop, so terminating run now';
         endif;
      ENDIF;
      If((MOD(NSTEP,MBATCH)==0 ! NSTEP==NSTMAX) & ^Givdtl ) then;
         CALL @SAVE_MODEL;  -- File OUT RES
         @DateTime;
         WRITE(@Wres,'(1X,''   ====> SAVED:'',I6,2X,A,2X,'' ON  '',A)')
                      NSTEP,@TIME,@DATE;
         call Tremain(MTIM,@BEG_TIME);
--         IF(MTIM*10<(LTIM-MTIM)*12) KFLAG=-4; --   KFLAG = -4 for time limit
         LTIM=MTIM;
      endif;
    ENDIF;
 _OD;
 _Case -KFLAG _of
--      Write (6,*)' finish with KFLAG=',KFLAG;
    _1 Write (6,*)' the error test fails for H=HMIN: KFLAG=',KFLAG;
    --   CALL PRIBAL(0) -- uncomment here if not called after _esac
    _2  Write (6,*)' corrector iterations fail to converge for',
                  ' H=HMIN: KFLAG=',KFLAG;
        Write (@term,*)' corrector iterations fail to converge for',
                  ' H=HMIN: KFLAG=',KFLAG;
     --  CALL PRIBAL(0) -- uncomment here if not called after _esac
    _3 WRITE(@Wres,*)' Ncnew=',Ncnew,'>=@NCOND_MAX'
    _4 WRITE(@Wres,*)' time limit: KFLAG=',KFLAG
 _esac;
 tretard=Ry(NZON-1)/CLIGHT;
 t_ob=(t-tretard)*UTIME; -- observer time in sec
 tout=t;
    do K=1,Nzon; -- Ry,Uy,Ty and rho must be defined before each call of Lossen or Pribal
      -- either via Y or Yout
      Ry(K)=Y(K,1);
      Uy(K)=Y(Nzon+K,1); -- NR
 --      Uy(K)=Y(Nzon+K,1)/sqrt(1.d0+(Y(Nzon+K,1)/clight)**2);
      Ty(K)=Y(2*Nzon+K,1);
    enddo;
    Rho(1)=3.D0*DM(1)/(Ry(1)**3-Rce**3);
    do I=2,Nzon;
      Rho(I)=3.D0*DM(I)/(Ry(I)**3-Ry(I-1)**3);
    enddo;
    do I=1,N;
      Yout(I)=Y(I,1);
    enddo;

 IF(KFLAG<0)THEN;
   CALL PRIBAL(0);
 ELSE;
   CALL PRIBAL(Iout);
 ENDIF;
 CALL @SAVE_MODEL;  -- File OUT RES
 @DateTime;
 WRITE(@Wres,'(1X,''   ====> SAVED:'',I6,2X,A,2X,'' ON  '',A)')
                      NSTEP,@TIME,@DATE;
 CALL VTIME(TIMEND);
 TIMEND=(TIMEND-@BEG_TIME);
 WRITE(@Wres,'('' RUN_TIME(s):'',1P,G12.3)')TIMEND;
 write(*,'(a,f8.1)') 'elaspsed time (minutes)', TIMEND/60.0;
 @DateTime;
 WRITE(@Wres,'(1X,''   ====> STEP:'',I6,2X,A,2X,'' ON  '',A)')
               NSTEP,@TIME,@DATE;

%A_CheckDr:

    Badste=.true.;
   _While Badste _do;
     Badste=.false.;
     K=1;
     _while .not. Badste .and.  K<=Nzon _do
       Ry(K)=Y(K,1);
       Uy(K)=Y(Nzon+K,1); -- NR
 --      Uy(K)=Y(Nzon+K,1)/sqrt(1.d0+(Y(Nzon+K,1)/clight)**2);
       if(K>1)then;
         if(Ry(K)<=Ry(K-1) )then; -- try new smaller step
           write(*,*)' BADSTE stradsep5tt Km=',K-1,'  R0=',Ry(K-1),'  u0=',Uy(K-1);
           write(*,*)' BADSTE stradsep5tt Km=',K,'  R1=',Ry(K),'  u1=',Uy(K);
 --          pause;
           Badste=.true.;
         endif;
       endif;
       Ty(K)=Y(2*Nzon+K,1);
       if(Ty(K)<= 0.d0 )then; -- try new smaller step
         write(*,*)' stradsep5tt: bad step - T, Km=',K,
                    '  R1=',Ry(K),'  u1=',Uy(K),'  Ty=',Ty(K);
         Badste=.true.;
       endif;
       K=K+1;
    _od;
     if(Badste)then;
       t=t-Hused;
       do I=1,N;
          Y(I,1)=Ysave(I);
       enddo;
       H=Hused*1.d-1;
       Jstart=0;
       write(*,*)' new call of VTSTIF at BADSTE';
       CALL VTSTIF;
       write(*,*)' after CALL VTSTIF BADSTE=',Badste;
--       pause;
       Badste=.true.; -- to check again in the loop
     endif;
   _Od;


%A_eddtau:
        CALL @FEAUTRIER(Ncnd,Ncnd);
        trlx=@Nrlx*h;
      _do L=1,Nfrus;
         _DO IK=Ncnd+1,NZON;  -- for EDTM==T
           EddO(IK,L)=EddN(IK,L);
           EddJ(IK,L)=EddN(IK,L);
           --if(L==25) write(*,'(a,i5,1p,3e12.4)')' L Edd{O,J,N}:', L, EddO(IK,L),
             --EddJ(IK,L),EddN(IK,L);
         _OD;
         HEdO(L)=HEdN(L);
         HEdd(L)=HEdN(L);
      _od;
--      pause;
      _do L=Nfrus+1,Nfreq;
         HEdO(L)=HEdN(Nfrus);
         HEdN(L)=HEdN(Nfrus);
         HEdd(L)=HEdN(Nfrus); -- to define for primag
--         write(*,'(a,i5,1p,e12.4)')' added L Hedd:', L,Hedd(L);
      _od;

        CALL GDEPOS;
        NEEDBR=.TRUE.;
--  ENDIF;
    IF(NSTEP==0 .or. NOUT>=200) THEN;
       <*K: PRINT & WRITE FIRST MODEL OF THE RUN *>;
    ENDIF;
    I=NZON; TAU(I)=0.D0;
    _WHILE  I>1 & I>=Ncnd _DO
       TP=Ty(I); PL=3.D0*DM(I)/(Ry(I)**3-Ry(I-1)**3);
       _Do ii=1, Natom [ Yat(ii)=YABUN(ii,I) ];
       RADP=.FALSE.;
       CALL URSOS; kmhap=I; CALL HAPPA;
       TAUste=(Ry(I)-Ry(I-1))*HAPPAL(@LM)*PL;
       If(Scat)then;
          TAUabs=(Ry(I)-Ry(I-1))*HAPabs(@LM)*PL;
          TAUsca=Tauste-Tauabs;
          -- Write(@wterm,'(A,1P,3E11.3)')
             -- ' tau tauabs tausca',tauste,tauabs,tausca;
          If(Tausca>1.d0)then;
             Tauste=sqrt(Tauabs*Tausca);
          else;
             Tauste=Tauabs;
          endif;
       endif;
       TAU(I-1)=TAU(I)+Tauste;
  /*   If(TAU(I-1)>=Taukli & TAU(I)/TAU(I-1)<Taujmp)Then;
         Klim(I)=1;
       Else;
         Klim(I)=0;
       Endif; */
       I=I-1
    _OD; --  I<Ncnd --& TAU(I)>Taukli

%A_eddtau.K:
--      <*A: FIND DENSITY IN Rho*>;
    ELOST=YENTOT(1);

     do K=1,Nzon; -- Ry,Uy,Ty and rho must be defined before each call of Lossen or Pribal
      -- either via Y or Yout
      Ry(K)=Y(K,1);
      Uy(K)=Y(Nzon+K,1); -- NR
 --      Uy(K)=Y(Nzon+K,1)/sqrt(1.d0+(Y(Nzon+K,1)/clight)**2);
      Ty(K)=Y(2*Nzon+K,1);
    enddo;
    Rho(1)=3.D0*DM(1)/(Ry(1)**3-Rce**3);
    do I=2,Nzon;
      Rho(I)=3.D0*DM(I)/(Ry(I)**3-Ry(I-1)**3);
    enddo;

    tout=t;
    do I=1,N;
      Yout(I)=Y(I,1);
    enddo;
    tretard=Ry(NZON-1)/CLIGHT;
    t_ob=(t-tretard)*UTIME; -- observer time in sec


     CALL PRIBAL(IOUT);

%A_eddtau.KA:
-- this node is not needed now
     Rho(1)=3.D0*DM(1)/(Ry(1)**3-Rce**3);
    _DO I=1,NZON;
  --   RADIUS(I)=Ry(I); VELOC(I)=Uy(I); TMPR(I)=Ty(I);
       IF(I>1)Rho(I)=3.D0*DM(I)/(Ry(I)**3-Ry(I-1)**3);
    _OD;
    ELOST=YENTOT(1);

%A_ymax:

     do I=1,N;
       Ysave(I)=Y(I,1);
     enddo;

     do IFL=1,NVARS;
        do I=1,NZON;
          YMAX(I+(IFL-1)*NZON)=
          MAX(ABS(Y(I+(IFL-1)*NZON,1)),FLOOR(IFL))*Wacc(IFL);
        enddo;
     enddo;
  --_DO I=NZON*NVARS+1,N; -- for FJ & FH
  --   YMAX(I)=MAX(ABS(Y(I,1)),FLOOR(NVARS+1));
  --_OD;
    _DO IFL=1,Nfrus;      -- for FJ
       _DO I=1,NZON-Ncnd;
         If(Freqmn(IFL)<1.d0)Then;
           YMAX(I+Nvars*Nzon+(IFL-1)*(NZON-Ncnd))=
           MAX(
            ABS(Y(I+Nvars*Nzon+(IFL-1)*(NZON-Ncnd),1)),FLOOR(Nvars+1));
         else;
           YMAX(I+Nvars*Nzon+(IFL-1)*(NZON-Ncnd))=
           MAX(
            ABS(Y(I+Nvars*Nzon+(IFL-1)*(NZON-Ncnd),1)),
                    FLOOR(Nvars+1)/(5.d0*Freqmn(IFL)**3));
         endif;
    _OD_OD;
    _DO I=NZON*NVARS+Krad+1,N; -- for FH
       YMAX(I)=MAX(ABS(Y(I,1)),FLOOR(NVARS+1));
    _OD;

%A_haptab:
  -- only two sets of tables were saved in the RAM for
  -- two values of dvdr (given by Stime)
    -- now all tables are in hpsavsc
  -- istim is the flag for the regime of saving the tables at given t
  -- for istim==0 , t<t0=Stime(1)/(half of a factor of Stime step),
  -- and istim==@ns+1, t>Stime(@ns), use only Stime(@ns) -- the
  -- smallest dvdr without interpolation;
  --
  -- for istim==1 , t0<t<Stime(1), log interp
  -- between Stime(@ns) and Stime(1) using t in (0.5, 1)*Stime(1)
  --
  -- for istim==2, 3, ... @ns, Stime(istim-1)<t<Stime(istim),
  -- log interp between boundaries
  -- actually Stime is a scalar and the vector is
  -- stmlog(.)==log(Stime for a respective moment of time) saved in Begrad
  --
  tdlog = log(max(tday,hmin)); -- for Nstep=0, t=t_0 defined in EVE and
                                -- saved in *.mod
 _select
   _ tdlog <= stmlog(1)-(stmlog(2)-stmlog(1))/2.d0
            .or. tdlog > stmlog(@ns) .or. abs(Knadap)==6  [istim=0]
   _ tdlog > stmlog(1)-(stmlog(2)-stmlog(1))/2.d0 & tdlog <= stmlog(1)
                                                   [istim=1]
   _other  -- here: stmlog (1) < tdlog <= stmlog(@ns)
             [ istim=2;
               _while stmlog(istim) < tdlog _do istim=istim+1 _od ]
                         -- stmlog(istim) >= tdlog
 _end
-- @wterm ' istim=',istim; -- , ' tday=',tday;
  if(istim^=istold)then;
     istold=istim;
    _case istim+1 _of
       if(istim>1 .and. istim <= @ns)then;
--         Opafile=Opafile(1:len_trim(Opafile)-1)//'2';
               ihp=istim;
               thaplog1=stmlog(istim-1); 
               thaplog2=stmlog(istim);
       else;
         write(*,*)' in strad istim=',istim;
         stop ' wrong istim in strad';
       endif;
      _0 ihp=@ns; -- Opafile=Opafile(1:len_trim(Opafile)-1)//'5';
                 thaplog1=stmlog(1); thaplog2=stmlog(@ns);
                  -- here the values of thaplog are not important
                  -- (if they are not equal), since haptab is the same
      _1 ihp=1;  -- Opafile=Opafile(1:len_trim(Opafile)-1)//'1';
                 thaplog1=stmlog(1)-(stmlog(2)-stmlog(1))/2.d0;
                 thaplog2=stmlog(1)
/*
      _2 Opafile=Opafile(1:len_trim(Opafile)-1)//'2';
                 thaplog1=stmlog(1); thaplog2=stmlog(2)
      _3 Opafile=Opafile(1:len_trim(Opafile)-1)//'3';
                 thaplog1=stmlog(2); thaplog2=stmlog(3)
      _4 Opafile=Opafile(1:len_trim(Opafile)-1)//'4';
                 thaplog1=stmlog(3); thaplog2=stmlog(4)
      _5 Opafile=Opafile(1:len_trim(Opafile)-1)//'5';
                 thaplog1=stmlog(4); thaplog2=stmlog(5)
    */
    _esac;
    _do im=1,Nzon/@skip;
        _do iro=1,@Ntab;
            _do itp=1,@Ntab;
                 _do L=1,Nfreq;
--               hpbanab1(L,itp,iro,im)=hpbanab2(L,itp,iro,im);
                     hpbansc1(L,itp,iro,im)=hpbansc2(L,itp,iro,im);